header

hello world!

update text. END.

Show GIT PUSH command.

New line.
Another new line.



New line.
