header

hello world!

update text. END.

Show GIT PUSH command.

Another new line.

New line.
